SOLUTION_MASTER_SPECIES 


#        ATOMIC WEIGHTS 
#        Naturally occuring elements: IUPAC 1993 Table 1 rounded to 0.001
#        Radioelements: Mass number of longest-lived isotope
#
#
#
#  elemen     species        alk   gfw_formula element_gfw atomic
#                                                          number
#
Ac(3)	 	0.0	Ac	227	 	
Ag(1)	 	0.0	Ag	107.868	 	
Al(3)	 	0.0	Al	26.9815	 	
Am(3)	 	0.0	Am	243.061	 	
As(5)	 	0.0	As	74.9216	 	
B(3)	 	0.0	B	10.812	 	
Ba(2)	 	0.0	Ba	137.328	 	
Br(-1)	 	0.0	Br	79.904	 	
C(4)	 	0.0	C	12.0108	 	
Ca(2)	 	0.0	Ca	40.078	 	
Cd(2)	 	0.0	Cd	112.414	 	
Cf(3)	 	0.0	Cf	251	 	
Cit(-3)	 	0.0	Cit	189.1	 	
Cl(-1)	 	0.0	Cl	35.453	 	
Cm(3)	 	0.0	Cm	247	 	
Cs(1)	 	0.0	Cs	132.905	 	
Cu(2)	 	0.0	Cu	63.546	 	
Edta(-4)	 	0.0	Edta	288.212	 	
Eu(3)	 	0.0	Eu	151.964	 	
F(-1)	 	0.0	F	18.9984	 	
Fe(2)	 	0.0	Fe	55.845	 	
H(1)	 	0.0	H	1.00795	 	
Hg(2)	 	0.0	Hg	200.592	 	
Ho(3)	 	0.0	Ho	164.93	 	
I(-1)	 	0.0	I	126.904	 	
Isa(-4)	 	0.0	Isa	176.125	 	
K(1)	 	0.0	K	39.0983	 	
Li(1)	 	0.0	Li	6.941	 	
Mg(2)	 	0.0	Mg	24.305	 	
Mn(2)	 	0.0	Mn	54.938	 	
Mo(6)	 	0.0	Mo	95.94	 	
N(5)	 	0.0	N	14.0067	 	
Na(1)	 	0.0	Na	22.9898	 	
Nb(5)	 	0.0	Nb	92.906	 	
Ni(2)	 	0.0	Ni	58.693	 	
Np(6)	 	0.0	Np	237.048	 	
O(-2)	 	0.0	O	15.9994	 	
Oxa(-2)	 	0.0	Oxa	88.019	 	
P(5)	 	0.0	P	30.9738	 	
Pa(5)	 	0.0	Pa	231.036	 	
Pb(2)	 	0.0	Pb	207.2	 	
Pd(2)	 	0.0	Pd	106.42	 	
Po(4)	 	0.0	Po	209	 	
Pu(6)	 	0.0	Pu	244.064	 	
Ra(2)	 	0.0	Ra	226.025	 	
S(6)	 	0.0	S	32.067	 	
Se(4)	 	0.0	Se	78.96	 	
Si(4)	 	0.0	Si	28.0855	 	
Sm(3)	 	0.0	Sm	150.36	 	
Sn(2)	 	0.0	Sn	118.711	 	
Sr(2)	 	0.0	Sr	87.65	 	
Tc(7)	 	0.0	Tc	97.907	 	
Th(4)	 	0.0	Th	232.038	 	
Ti(4)	 	0.0	Ti	47.867	 	
U(6)	 	0.0	U	238.029	 	
Zn(2)	 	0.0	Zn	65.38	 	
Zr(4)	 	0.0	Zr	91.224	 	
Zz(0)	 	0.0	Zz	0	 	


SOLUTION_SPECIES 

# PMATCH MASTER SPECIES 


# PMATCH SECONDARY MASTER SPECIES 


2NpO2+2 + 2H2O = (NpO2)2(OH)2+2 + 2H+
	-analytical_expression	-6.27 0 0 0 0 0 0 
	-log_K	-6.27 

2NpO2+2 + 2H2O(l) + -2H+ = (NpO2)2(OH)2+2
	-log_K	-6.27 

2NpO2+2 + HCO3- + 3H2O = (NpO2)2CO3(OH)3- + 4H+
	-analytical_expression	-12.139 0 0 0 0 0 0 
	-log_K	-12.139 

2NpO2+2 + 1CO3-2 + 3H2O(l) + -3H+ = (NpO2)2CO3(OH)3-
	-log_K	-1.81 

3NpO2+2 + 6HCO3- = (NpO2)3(CO3)6-6 + 6H+
	-analytical_expression	-10.544 0 0 0 0 0 0 
	-log_K	-10.544 

3NpO2+2 + 6CO3-2 = (NpO2)3(CO3)6-6
	-log_K	51.43 

3NpO2+2 + 5H2O = (NpO2)3(OH)5+ + 5H+
	-analytical_expression	-17.12 0 0 0 0 0 0 
	-log_K	-17.12 

3NpO2+2 + 5H2O(l) + -5H+ = (NpO2)3(OH)5+
	-log_K	-17.12 

2PuO2+2 + 2H2O = (PuO2)2(OH)2+2 + 2H+
	-analytical_expression	3.9575189978768 0 -3416.0592886892 0 0 0 0 
	-log_K	-7.5 

2PuO2+2 + 2H2O(l) + -2H+ = (PuO2)2(OH)2+2
	-log_K	-7.5 

3PuO2+2 + 6HCO3- = (PuO2)3(CO3)6-6 + 6H+
	-analytical_expression	-13.374 0 0 0 0 0 0 
	-log_K	-13.374 

3PuO2+2 + 6CO3-2 = (PuO2)3(CO3)6-6
	-log_K	48.6 

2U+4 + 2H2O + 2Edta-4 = (UEdtaOH)2-2 + 2H+
	-analytical_expression	51.9 0 0 0 0 0 0 
	-log_K	51.9 

2UEdtaOH- = (UEdtaOH)2-2
	-log_K	2.7 

2UO2+2 + 2H2O = (UO2)2(OH)2+2 + 2H+
	-analytical_expression	2.7541499557823 0 -2496.7528134456 0 0 0 0 
	-log_K	-5.62 

2UO2+2 + 2H2O(l) + -2H+ = (UO2)2(OH)2+2
	-log_K	-5.62 

2UO2+2 + HCO3- + 3H2O = (UO2)2CO3(OH)3- + 4H+
	-analytical_expression	-11.189 0 0 0 0 0 0 
	-log_K	-11.189 

2UO2+2 + 1CO3-2 + 3H2O(l) + -3H+ = (UO2)2CO3(OH)3-
	-log_K	-0.86 

2UO2+2 + Edta-4 = (UO2)2Edta
	-analytical_expression	20.6 0 0 0 0 0 0 
	-log_K	20.6 

2UO2+2 + 1Edta-4 = (UO2)2Edta(aq)
	-log_K	20.6 

2UO2+2 + NpO2+2 + 6HCO3- = (UO2)2NpO2(CO3)6-6 + 6H+
	-analytical_expression	-8.384 0 0 0 0 0 0 
	-log_K	-8.384 

2UO2+2 + 1NpO2+2 + 6CO3-2 = (UO2)2NpO2(CO3)6-6
	-log_K	53.59 

2UO2+2 + H2O = (UO2)2OH+3 + H+
	-analytical_expression	-2.7 0 0 0 0 0 0 
	-log_K	-2.7 

2UO2+2 + 1H2O(l) + -1H+ = (UO2)2OH+3
	-log_K	-2.7 

2UO2+2 + PuO2+2 + 6HCO3- = (UO2)2PuO2(CO3)6-6 + 6H+
	-analytical_expression	-8.474 0 0 0 0 0 0 
	-log_K	-8.474 

2UO2+2 + 1PuO2+2 + 6CO3-2 = (UO2)2PuO2(CO3)6-6
	-log_K	53.5 

3UO2+2 + 6HCO3- = (UO2)3(CO3)6-6 + 6H+
	-analytical_expression	-3.2953378427598 0 -1394.9431095372 0 0 0 0 
	-log_K	-7.974 

3UO2+2 + 6CO3-2 = (UO2)3(CO3)6-6
	-log_K	54 

3UO2+2 + 4H2O = (UO2)3(OH)4+2 + 4H+
	-analytical_expression	5.4789890782012 0 -5181.5455877365 0 0 0 0 
	-log_K	-11.9 

3UO2+2 + 4H2O(l) + -4H+ = (UO2)3(OH)4+2
	-log_K	-11.9 

3UO2+2 + 5H2O = (UO2)3(OH)5+ + 5H+
	-analytical_expression	5.5956046193522 0 -6304.5620205625 0 0 0 0 
	-log_K	-15.55 

3UO2+2 + 5H2O(l) + -5H+ = (UO2)3(OH)5+
	-log_K	-15.55 

3UO2+2 + 7H2O = (UO2)3(OH)7- + 7H+
	-analytical_expression	-32.2 0 0 0 0 0 0 
	-log_K	-32.2 

3UO2+2 + 7H2O(l) + -7H+ = (UO2)3(OH)7-
	-log_K	-32.2 

3UO2+2 + HCO3- + 3H2O = (UO2)3O(OH)2HCO3+ + 4H+
	-analytical_expression	-9.669 0 0 0 0 0 0 
	-log_K	-9.669 

3UO2+2 + 1CO3-2 + 3H2O(l) + -3H+ = (UO2)3O(OH)2(HCO3)+
	-log_K	0.66 

4UO2+2 + 7H2O = (UO2)4(OH)7+ + 7H+
	-analytical_expression	-21.9 0 0 0 0 0 0 
	-log_K	-21.9 

4UO2+2 + 7H2O(l) + -7H+ = (UO2)4(OH)7+
	-log_K	-21.9 

2UO2+2 + 2Cit-3 = (UO2Cit)2-2
	-analytical_expression	21.3 0 0 0 0 0 0 
	-log_K	21.3 

2UO2+2 + 2Cit-3 = (UO2Cit)2-2
	-log_K	21.3 

Cit-3 + Ac+3 = Ac(Cit)
	-analytical_expression	8.9 0 0 0 0 0 0 
	-log_K	8.9 

1Ac+3 + 1Cit-3 = Ac(Cit)(aq)
	-log_K	8.9 

Edta-4 + Ac+3 = Ac(Edta)-
	-analytical_expression	16.8 0 0 0 0 0 0 
	-log_K	16.8 

1Ac+3 + 1Edta-4 = Ac(Edta)-
	-log_K	16.8 

3H2O + Ac+3 = Ac(OH)3 + 3H+
	-analytical_expression	-31.2 0 0 0 0 0 0 
	-log_K	-31.2 

1Ac+3 + 3H2O(l) + -3H+ = Ac(OH)3(aq)
	-log_K	-31.2 

Oxa-2 + Ac+3 = Ac(Oxa)+
	-analytical_expression	5.9 0 0 0 0 0 0 
	-log_K	5.9 

1Ac+3 + 1Oxa-2 = Ac(Oxa)+
	-log_K	5.9 

2Oxa-2 + Ac+3 = Ac(Oxa)2-
	-analytical_expression	9.6 0 0 0 0 0 0 
	-log_K	9.6 

1Ac+3 + 2Oxa-2 = Ac(Oxa)2-
	-log_K	9.6 

Cl- + Ac+3 = AcCl+2
	-analytical_expression	0.6 0 0 0 0 0 0 
	-log_K	0.6 

1Ac+3 + 1Cl- = AcCl+2
	-log_K	0.6 

F- + Ac+3 = AcF+2
	-analytical_expression	3.61 0 0 0 0 0 0 
	-log_K	3.61 

1Ac+3 + 1F- = AcF+2
	-log_K	3.61 

2F- + Ac+3 = AcF2+
	-analytical_expression	6.73 0 0 0 0 0 0 
	-log_K	6.73 

1Ac+3 + 2F- = AcF2+
	-log_K	6.73 

3F- + Ac+3 = AcF3
	-analytical_expression	9.75 0 0 0 0 0 0 
	-log_K	9.75 

1Ac+3 + 3F- = AcF3(aq)
	-log_K	9.75 

HPO4-2 + H+ + Ac+3 = AcH2PO4+2
	-analytical_expression	9.912 0 0 0 0 0 0 
	-log_K	9.912 

1Ac+3 + 1H2PO4- = AcH2PO4+2
	-log_K	2.7 

H+ + Edta-4 + Ac+3 = AcHEdta
	-analytical_expression	19.4 0 0 0 0 0 0 
	-log_K	19.4 

1Ac(Edta)- + 1H+ = AcHEdta(aq)
	-log_K	2.6 

H2O + Ac+3 = AcOH+2 + H+
	-analytical_expression	-8.6 0 0 0 0 0 0 
	-log_K	-8.6 

1Ac+3 + 1H2O(l) + -1H+ = AcOH+2
	-log_K	-8.6 

S + HCN + Ac+3 = AcSCN+2 + H+
	-analytical_expression	11.444543 0 0 0 0 0 0 
	-log_K	11.444543 

1Ac+3 + 1SCN- = AcSCN+2
	-log_K	1 

SO4-2 + Ac+3 = AcSO4+
	-analytical_expression	3.5 0 0 0 0 0 0 
	-log_K	3.5 

1Ac+3 + 1SO4-2 = AcSO4+
	-log_K	3.5 

1Ag(cr) = Ag(aq)
	-log_K	-6.4 

2HCN + Ag+ = Ag(CN)2- + 2H+
	-analytical_expression	2.46 0 0 0 0 0 0 
	-log_K	2.46 

1Ag+ + 2CN- = Ag(CN)2-
	-log_K	20.88 

3HCN + Ag+ = Ag(CN)3-2 + 3H+
	-analytical_expression	-5.83 0 0 0 0 0 0 
	-log_K	-5.83 

1Ag+ + 3CN- = Ag(CN)3-2
	-log_K	21.8 

2HS- + Ag+ = Ag(HS)2-
	-analytical_expression	6.6958041266292 0 3191.456002124 0 0 0 0 
	-log_K	17.4 

1Ag+ + 2HS- = Ag(HS)2-
	-log_K	17.4 

2H2O + Ag+ = Ag(OH)2- + 2H+
	-analytical_expression	-12.234272751645 0 -3609.3225817802 0 0 0 0 
	-log_K	-24.34 

1Ag+ + 2H2O(l) + -2H+ = Ag(OH)2-
	-log_K	-24.34 

HCN + H2O + Ag+ = Ag(OH)CN- + 2H+
	-analytical_expression	-9.91 0 0 0 0 0 0 
	-log_K	-9.91 

1Ag+ + 1OH- + 1CN- = Ag(OH)CN-
	-log_K	13.3 

3Se + 3HCN + Ag+ = Ag(SeCN)3-2 + 3H+
	-analytical_expression	20.460153 0 0 0 0 0 0 
	-log_K	20.460153 

1Ag+ + 3CN- + 3HSe- + -3H+ + -6e- = Ag(SeCN)3-2
	-log_K	52.94 

3HS- + 2Ag+ = Ag2S(HS)2-2 + H+
	-analytical_expression	31.1 0 0 0 0 0 0 
	-log_K	31.1 

2Ag+ + 3HS- + -1H+ = Ag2S(HS)2-2
	-log_K	31.1 

H2Se + 2Ag+ = Ag2Se + 2H+
	-analytical_expression	31.336209 0 0 0 0 0 0 
	-log_K	31.336209 

1Ag2Se(alpha) = Ag2Se(aq)
	-log_K	-7.66 

Br- + Ag+ = AgBr
	-analytical_expression	-1.2237978079074 0 1718.476308836 0 0 0 0 
	-log_K	4.54 

1Ag+ + 1Br- = AgBr(aq)
	-log_K	4.54 

2Br- + Ag+ = AgBr2-
	-analytical_expression	-0.92918823635261 0 2507.199477937 0 0 0 0 
	-log_K	7.48 

1Ag+ + 2Br- = AgBr2-
	-log_K	7.48 

3Br- + Ag+ = AgBr3-2
	-analytical_expression	-0.93258794661137 0 2752.696093485 0 0 0 0 
	-log_K	8.3 

1Ag+ + 3Br- = AgBr3-2
	-log_K	8.3 

4Br- + Ag+ = AgBr4-3
	-analytical_expression	7.2 0 0 0 0 0 0 
	-log_K	7.2 

1Ag+ + 4Br- = AgBr4-3
	-log_K	7.2 

Cl- + Ag+ = AgCl
	-analytical_expression	-1.6052832516724 0 1441.6396998138 0 0 0 0 
	-log_K	3.23 

1Ag+ + 1Cl- = AgCl(aq)
	-log_K	3.23 

2Cl- + Ag+ = AgCl2-
	-analytical_expression	1.4184227192482 0 1112.5697683346 0 0 0 0 
	-log_K	5.15 

1Ag+ + 2Cl- = AgCl2-
	-log_K	5.15 

3Cl- + Ag+ = AgCl3-2
	-analytical_expression	-2.2830014174875 0 2183.3528787035 0 0 0 0 
	-log_K	5.04 

1Ag+ + 3Cl- = AgCl3-2
	-log_K	5.04 

4Cl- + Ag+ = AgCl4-3
	-analytical_expression	-8.6058804106359 0 3651.1092397458 0 0 0 0 
	-log_K	3.64 

1Ag+ + 4Cl- = AgCl4-3
	-log_K	3.64 

HCO3- + Ag+ = AgCO3- + H+
	-analytical_expression	-7.929 0 0 0 0 0 0 
	-log_K	-7.929 

1Ag+ + 1CO3-2 = AgCO3-
	-log_K	2.4 

F- + Ag+ = AgF
	-analytical_expression	-1.9397396400633 0 611.12987274715 0 0 0 0 
	-log_K	0.11 

1Ag+ + 1F- = AgF(aq)
	-log_K	0.11 

HPO4-2 + Ag+ = AgHPO4-
	-analytical_expression	4.5 0 0 0 0 0 0 
	-log_K	4.5 

1Ag+ + 1HPO4-2 = AgHPO4-
	-log_K	4.5 

HS- + Ag+ = AgHS
	-analytical_expression	13.5 0 0 0 0 0 0 
	-log_K	13.5 

1Ag+ + 1HS- = AgHS(aq)
	-log_K	13.5 

I- + Ag+ = AgI
	-analytical_expression	-5.6755740972005 0 3567.5359238146 0 0 0 0 
	-log_K	6.29 

1Ag+ + 1I- = AgI(aq)
	-log_K	6.29 

2I- + Ag+ = AgI2-
	-analytical_expression	-2.5953137499894 0 4178.6657965617 0 0 0 0 
	-log_K	11.42 

1Ag+ + 2I- = AgI2-
	-log_K	11.42 

3I- + Ag+ = AgI3-2
	-analytical_expression	-4.5244101715689 0 5296.458897142 0 0 0 0 
	-log_K	13.24 

1Ag+ + 3I- = AgI3-2
	-log_K	13.24 

4I- + Ag+ = AgI4-3
	-analytical_expression	13.1 0 0 0 0 0 0 
	-log_K	13.1 

1Ag+ + 4I- = AgI4-3
	-log_K	13.1 

H2O + Ag+ = AgOH + H+
	-analytical_expression	2.055084031079 0 -4115.9858096133 0 0 0 0 
	-log_K	-11.75 

1Ag+ + 1H2O(l) + -1H+ = AgOH(aq)
	-log_K	-11.75 

SeO3-2 + Ag+ = AgSeO3-
	-analytical_expression	3.1 0 0 0 0 0 0 
	-log_K	3.1 

1Ag+ + 1SeO3-2 = AgSeO3-
	-log_K	3.1 

HSeO4- + Ag+ = AgSeO4- + H+
	-analytical_expression	-0.75 0 0 0 0 0 0 
	-log_K	-0.75 

1Ag+ + 1SeO4-2 = AgSeO4-
	-log_K	1 

SO4-2 + Ag+ = AgSO4-
	-analytical_expression	2.2837059405408 0 -329.06993147923 0 0 0 0 
	-log_K	1.18 

1Ag+ + 1SO4-2 = AgSO4-
	-log_K	1.18 

2H2O + Al+3 = Al(OH)2+ + 2H+
	-analytical_expression	8.7812095491612 0 -5787.452128238 0 0 0 0 
	-log_K	-10.63 

1Al+3 + 2H2O(l) + -2H+ = Al(OH)2+
	-log_K	-10.63 

2H2O + F- + Al+3 = Al(OH)2F + 2H+
	-analytical_expression	28.683259220283 0 -7383.6273719002 -3.33104416254585 0 0 0 
	-log_K	-4.324 

1Al(OH)4- + 1HF(aq) + -1OH- + -1H2O(l) = Al(OH)2F(aq)
	-log_K	1.41 

2H2O + 2F- + Al+3 = Al(OH)2F2- + 2H+
	-analytical_expression	16.412616001421 0 -7660.7170618164 2.87401181788687 0 0 0 
	-log_K	-2.17 

1Al(OH)4- + 2F- + -2OH- = Al(OH)2F2-
	-log_K	-7.26 

3H2O + Al+3 = Al(OH)3 + 3H+
	-analytical_expression	7.6958802419878 0 -7061.9451961893 0 0 0 0 
	-log_K	-15.99 

1Al+3 + 3H2O(l) + -3H+ = Al(OH)3(aq)
	-log_K	-15.99 

4H2O + Al+3 = Al(OH)4- + 4H+
	-analytical_expression	74.116913396199 0 -12779.577042299 -21.8894438757701 0 0 0 
	-log_K	-22.91 

1Al+3 + 4H2O(l) + -4H+ = Al(OH)4-
	-log_K	-22.91 

2SO4-2 + Al+3 = Al(SO4)2-
	-analytical_expression	-796.29702036631 0 36734.755484219 274.219406795365 0 0 0 
	-log_K	5.45 

1AlSO4+ + 1SO4-2 = Al(SO4)2-
	-log_K	1.89 

32H2O + 13Al+3 = Al13(OH)32+7 + 32H+
	-analytical_expression	119.97538772156 0 -65594.606341527 0 0 0 0 
	-log_K	-100.03 

13Al+3 + 32H2O(l) + -32H+ = Al13(OH)32+7
	-log_K	-100.03 

2H2O + 2Al+3 = Al2(OH)2+4 + 2H+
	-analytical_expression	7.0260028724401 0 -4366.705757407 0 0 0 0 
	-log_K	-7.62 

2Al+3 + 2H2O(l) + -2H+ = Al2(OH)2+4
	-log_K	-7.62 

4H2O + 3Al+3 = Al3(OH)4+5 + 4H+
	-analytical_expression	11.730505025809 0 -7641.7350754622 0 0 0 0 
	-log_K	-13.9 

3Al+3 + 4H2O(l) + -4H+ = Al3(OH)4+5
	-log_K	-13.9 

F- + Al+3 = AlF+2
	-analytical_expression	7.9226707466976 0 -251.24228101827 0 0 0 0 
	-log_K	7.08 

1Al+3 + 1F- = AlF+2
	-log_K	7.08 

2F- + Al+3 = AlF2+
	-analytical_expression	14.143794787867 0 -421.52291222816 0 0 0 0 
	-log_K	12.73 

1AlF+2 + 1F- = AlF2+
	-log_K	5.65 

3F- + Al+3 = AlF3
	-analytical_expression	18.332195987769 0 -462.78723696921 0 0 0 0 
	-log_K	16.78 

1AlF2+ + 1F- = AlF3(aq)
	-log_K	4.05 

4F- + Al+3 = AlF4-
	-analytical_expression	21.047169959275 0 -523.90022424392 0 0 0 0 
	-log_K	19.29 

1AlF3(aq) + 1F- = AlF4-
	-log_K	2.51 

5F- + Al+3 = AlF5-2
	-analytical_expression	21.497068885094 0 -359.88759172888 0 0 0 0 
	-log_K	20.29 

1AlF4- + 1F- = AlF5-2
	-log_K	1 

6F- + Al+3 = AlF6-3
	-analytical_expression	20.358324633244 0 -20.370995758238 0 0 0 0 
	-log_K	20.29 

1AlF5-2 + 1F- = AlF6-3
	-log_K	0 

H2O + Al+3 = AlOH+2 + H+
	-analytical_expression	4.8307196417208 0 -2925.0660575932 0 0 0 0 
	-log_K	-4.98 

1Al+3 + 1H2O(l) + -1H+ = AlOH+2
	-log_K	-4.98 

H2O + 2F- + Al+3 = AlOHF2 + H+
	-analytical_expression	-17.135477306832 0 -6019.4971484869 15.1133380078531 0 0 0 
	-log_K	0.072 

1Al(OH)4- + 2HF(aq) + -1OH- + -2H2O(l) = AlOHF2(aq)
	-log_K	2.63 

Si(OH)4 + Al+3 = AlSiO(OH)3+2 + H+
	-analytical_expression	9.3477487224933 0 -3478.7392756376 0 0 0 0 
	-log_K	-2.32 

1Al+3 + 1Si(OH)4(aq) + -1H+ = AlSiO(OH)3+2
	-log_K	-2.32 

SO4-2 + Al+3 = AlSO4+
	-analytical_expression	-411.12306834835 0 18935.467357152 141.920570183564 0 0 0 
	-log_K	3.56 

1Al+3 + 1SO4-2 = AlSO4+
	-log_K	3.56 

Cit-3 + Am+3 = Am(Cit)
	-analytical_expression	8.55 0 0 0 0 0 0 
	-log_K	8.55 

1Am+3 + 1Cit-3 = Am(Cit)(aq)
	-log_K	8.55 

2Cit-3 + Am+3 = Am(Cit)2-3
	-analytical_expression	13.9 0 0 0 0 0 0 
	-log_K	13.9 

1Am+3 + 2Cit-3 = Am(Cit)2-3
	-log_K	13.9 

2HCO3- + Am+3 = Am(CO3)2- + 2H+
	-analytical_expression	-7.758 0 0 0 0 0 0 
	-log_K	-7.758 

1Am+3 + 2CO3-2 = Am(CO3)2-
	-log_K	12.9 

3HCO3- + Am+3 = Am(CO3)3-3 + 3H+
	-analytical_expression	-15.987 0 0 0 0 0 0 
	-log_K	-15.987 

1Am+3 + 3CO3-2 = Am(CO3)3-3
	-log_K	15 

Edta-4 + Am+3 = Am(Edta)-
	-analytical_expression	17.812970907051 0 553.67321804443 0 0 0 0 
	-log_K	19.67 

1Am+3 + 1Edta-4 = Am(Edta)-
	-log_K	19.67 

H2O + Edta-4 + Am+3 = Am(Edta)OH-2 + H+
	-analytical_expression	8.33 0 0 0 0 0 0 
	-log_K	8.33 

1Am(Edta)- + 1OH- = Am(Edta)OH-2
	-log_K	2.66 

H+ + Cit-3 + Am+3 = Am(HCit)+
	-analytical_expression	12.86 0 0 0 0 0 0 
	-log_K	12.86 

1Am+3 + 1HCit-2 = Am(HCit)+
	-log_K	6.5 

2H+ + 2Cit-3 + Am+3 = Am(HCit)2-
	-analytical_expression	23.52 0 0 0 0 0 0 
	-log_K	23.52 

1Am+3 + 2HCit-2 = Am(HCit)2-
	-log_K	10.8 

H+ + Edta-4 + Am+3 = Am(HEdta)
	-analytical_expression	21.84 0 0 0 0 0 0 
	-log_K	21.84 

1Am(Edta)- + 1H+ = Am(HEdta)(aq)
	-log_K	2.17 

H3Isa- + Am+3 = Am(Isa)- + 3H+
	-analytical_expression	22.2 0 0 0 0 0 0 
	-log_K	22.2 

1Am+3 + 1H3Isa- + -3H+ = Am(Isa)-
	-log_K	22.2 

2NO3- + Am+3 = Am(NO3)2+
	-analytical_expression	2.7720673434514 0 -564.11988253583 0 0 0 0 
	-log_K	0.88 

1Am+3 + 2NO3- = Am(NO3)2+
	-log_K	0.88 

2H2O + Am+3 = Am(OH)2+ + 2H+
	-analytical_expression	-15.1 0 0 0 0 0 0 
	-log_K	-15.1 

1Am+3 + 2H2O(l) + -2H+ = Am(OH)2+
	-log_K	-15.1 

3H2O + Am+3 = Am(OH)3 + 3H+
	-analytical_expression	-26.2 0 0 0 0 0 0 
	-log_K	-26.2 

1Am+3 + 3H2O(l) + -3H+ = Am(OH)3(aq)
	-log_K	-26.2 

Oxa-2 + Am+3 = Am(Oxa)+
	-analytical_expression	6.51 0 0 0 0 0 0 
	-log_K	6.51 

1Am+3 + 1Oxa-2 = Am(Oxa)+
	-log_K	6.51 

2Oxa-2 + Am+3 = Am(Oxa)2-
	-analytical_expression	10.71 0 0 0 0 0 0 
	-log_K	10.71 

1Am+3 + 2Oxa-2 = Am(Oxa)2-
	-log_K	10.71 

3Oxa-2 + Am+3 = Am(Oxa)3-3
	-analytical_expression	13 0 0 0 0 0 0 
	-log_K	13 

1Am+3 + 3Oxa-2 = Am(Oxa)3-3
	-log_K	13 

2SO4-2 + Am+3 = Am(SO4)2-
	-analytical_expression	17.263399519586 0 -3656.3325719915 0 0 0 0 
	-log_K	5 

1Am+3 + 2SO4-2 = Am(SO4)2-
	-log_K	5 

Cl- + Am+3 = AmCl+2
	-analytical_expression	0.24 0 0 0 0 0 0 
	-log_K	0.24 

1Am+3 + 1Cl- = AmCl+2
	-log_K	0.24 

2Cl- + Am+3 = AmCl2+
	-analytical_expression	8.8080090566142 0 -2867.6094028905 0 0 0 0 
	-log_K	-0.81 

1Am+3 + 2Cl- = AmCl2+
	-log_K	-0.81 

HCO3- + Am+3 = AmCO3+ + H+
	-analytical_expression	-2.329 0 0 0 0 0 0 
	-log_K	-2.329 

1Am+3 + 1CO3-2 = AmCO3+
	-log_K	8 

F- + Am+3 = AmF+2
	-analytical_expression	5.5198162100333 0 -632.02320172996 0 0 0 0 
	-log_K	3.4 

1Am+3 + 1F- = AmF+2
	-log_K	3.4 

2F- + Am+3 = AmF2+
	-analytical_expression	13.701133154507 0 -2355.7228428117 0 0 0 0 
	-log_K	5.8 

1Am+3 + 2F- = AmF2+
	-log_K	5.8 

HPO4-2 + H+ + Am+3 = AmH2PO4+2
	-analytical_expression	9.672 0 0 0 0 0 0 
	-log_K	9.672 

1Am+3 + 1H2PO4- = AmH2PO4+2
	-log_K	2.46 

HCO3- + Am+3 = AmHCO3+2
	-analytical_expression	3.1 0 0 0 0 0 0 
	-log_K	3.1 

1Am+3 + 1HCO3- = AmHCO3+2
	-log_K	3.1 

HPO4-2 + Am+3 = AmHPO4+
	-analytical_expression	6.2 0 0 0 0 0 0 
	-log_K	6.2 

1Am+3 + 1HPO4-2 = AmHPO4+
	-log_K	6.2 

NO3- + Am+3 = AmNO3+2
	-analytical_expression	1.5953445562419 0 -94.019980422638 0 0 0 0 
	-log_K	1.28 

1Am+3 + 1NO3- = AmNO3+2
	-log_K	1.28 

2HCO3- + AmO2+ = AmO2(CO3)2-3 + 2H+
	-analytical_expression	-13.958 0 0 0 0 0 0 
	-log_K	-13.958 

1AmO2+ + 2CO3-2 = AmO2(CO3)2-3
	-log_K	6.7 

3HCO3- + AmO2+ = AmO2(CO3)3-5 + 3H+
	-analytical_expression	-25.887 0 0 0 0 0 0 
	-log_K	-25.887 

1AmO2+ + 3CO3-2 = AmO2(CO3)3-5
	-log_K	5.1 

2H2O + AmO2+ = AmO2(OH)2- + 2H+
	-analytical_expression	-23.6 0 0 0 0 0 0 
	-log_K	-23.6 

1AmO2+ + 2H2O(l) + -2H+ = AmO2(OH)2-
	-log_K	-23.6 

2H2O + Am+3 = AmO2+ + 4H+ + 2-
	-analytical_expression	50.253121753985 0 -21958.59353297 -14.6570272932122 0 0 0 
	-log_K	-59.666694 

2H2O + Am+3 = AmO2+ + 4H+ + 2-
	-analytical_expression	50.253121753985 0 -21958.59353297 -14.6570272932122 0 0 0 
	-log_K	-59.666694 

HCO3- + AmO2+ = AmO2CO3- + H+
	-analytical_expression	-5.229 0 0 0 0 0 0 
	-log_K	-5.229 

1AmO2+ + 1CO3-2 = AmO2CO3-
	-log_K	5.1 

H2O + AmO2+ = AmO2OH + H+
	-analytical_expression	-11.3 0 0 0 0 0 0 
	-log_K	-11.3 

1AmO2+ + 1H2O(l) + -1H+ = AmO2OH(aq)
	-log_K	-11.3 

H2O + Am+3 = AmOH+2 + H+
	-analytical_expression	-7.2 0 0 0 0 0 0 
	-log_K	-7.2 

1Am+3 + 1H2O(l) + -1H+ = AmOH+2
	-log_K	-7.2 

S + HCN + Am+3 = AmSCN+2 + H+
	-analytical_expression	11.744543 0 0 0 0 0 0 
	-log_K	11.744543 

1Am+3 + 1SCN- = AmSCN+2
	-log_K	1.3 

Si(OH)4 + Am+3 = AmSiO(OH)3+2 + H+
	-analytical_expression	5.1027717306393 0 -2120.6728917551 0 0 0 0 
	-log_K	-2.01 

1Am+3 + 1SiO(OH)3- = AmSiO(OH)3+2
	-log_K	7.8 

SO4-2 + Am+3 = AmSO4+
	-analytical_expression	10.507656871937 0 -2089.3328982809 0 0 0 0 
	-log_K	3.5 

1Am+3 + 1SO4-2 = AmSO4+
	-log_K	3.5 

HAsO4-2 + 4H+ + 2- = As(OH)3 + H2O
	-analytical_expression	-4.0128551189636 0 6852.0832004996 3.82788642985784 0 0 0 
	-log_K	28.441 

HAsO4-2 + 4H+ + 2- = As(OH)3 + H2O
	-analytical_expression	-4.0128551189636 0 6852.0832004996 3.82788642985784 0 0 0 
	-log_K	28.441 

1HAsO4-2 + 4H+ + 2e- + -1H2O(l) = As(OH)3(aq)
	-log_K	28.441 

H2O + As(OH)3 = As(OH)4- + H+
	-analytical_expression	-4.4417409622161 0 -1428.2157359423 0 0 0 0 
	-log_K	-9.232 

1As(OH)3(aq) + 1H2O(l) + -1H+ = As(OH)4-
	-log_K	-9.232 

HAsO4-2 = AsO4-3 + H+
	-analytical_expression	-8.4145161122161 0 -950.64646871779 0 0 0 0 
	-log_K	-11.603 

1HAsO4-2 + -1H+ = AsO4-3
	-log_K	-11.603 

H2O + B(OH)3 = B(OH)4- + H+
	-analytical_expression	62.005762224225 0 -3795.789604023 -23.6456507959562 0 0 0 
	-log_K	-9.235 

1B(OH)3(aq) + 1H2O(l) + -1H+ = B(OH)4-
	-log_K	-9.235 

UO2+2 + 3HCO3- + 2Ba+2 = Ba2UO2(CO3)3 + 3H+
	-analytical_expression	-1.237 0 0 0 0 0 0 
	-log_K	-1.237 

2Ba+2 + 1UO2+2 + 3CO3-2 = Ba2UO2(CO3)3(aq)
	-log_K	29.75 

HCO3- + Ba+2 = BaCO3 + H+
	-analytical_expression	-1.2522430318334 0 -1506.7511975443 -0.542786045117316 0 0 0 
	-log_K	-7.649 

1Ba+2 + 1CO3-2 = BaCO3(aq)
	-log_K	2.68 

F- + Ba+2 = BaF+
	-analytical_expression	2.7197396353807 0 -611.12987274715 0 0 0 0 
	-log_K	0.67 

1Ba+2 + 1F- = BaF+
	-log_K	0.67 

HPO4-2 + H+ + Ba+2 = BaH2PO4+
	-analytical_expression	7.812 0 0 0 0 0 0 
	-log_K	7.812 

1Ba+2 + 1H2PO4- = BaH2PO4+
	-log_K	0.6 

HCO3- + Ba+2 = BaHCO3+
	-analytical_expression	-88.212624595777 0 2993.3820200347 31.9922641261263 0 0 0 
	-log_K	0.99 

1Ba+2 + 1HCO3- = BaHCO3+
	-log_K	0.99 

HPO4-2 + Ba+2 = BaHPO4
	-analytical_expression	2.25 0 0 0 0 0 0 
	-log_K	2.25 

1Ba+2 + 1HPO4-2 = BaHPO4(aq)
	-log_K	2.25 

H2O + Ba+2 = BaOH+ + H+
	-analytical_expression	-2.6508424205269 0 -3181.0093376326 0 0 0 0 
	-log_K	-13.32 

1Ba+2 + 1H2O(l) + -1H+ = BaOH+
	-log_K	-13.32 

HPO4-2 + Ba+2 = BaPO4- + H+
	-analytical_expression	-7.65 0 0 0 0 0 0 
	-log_K	-7.65 

1Ba+2 + 1PO4-3 = BaPO4-
	-log_K	4.7 

SO4-2 + Ba+2 = BaSO4
	-analytical_expression	2.8306125405942 0 -167.14663186247 0 0 0 0 
	-log_K	2.27 

1Ba+2 + 1SO4-2 = BaSO4(aq)
	-log_K	2.27 

UO2+2 + 3HCO3- + Ba+2 = BaUO2(CO3)3-2 + 3H+
	-analytical_expression	-5.387 0 0 0 0 0 0 
	-log_K	-5.387 

1Ba+2 + 1UO2+2 + 3CO3-2 = BaUO2(CO3)3-2
	-log_K	25.6 

Cit-3 + Ca+2 = Ca(Cit)-
	-analytical_expression	4.8000000234174 0 0 0 0 0 0 
	-log_K	4.8 

1Ca+2 + 1Cit-3 = Ca(Cit)-
	-log_K	4.8 

Edta-4 + Ca+2 = Ca(Edta)-2
	-analytical_expression	8.8007504529589 0 1159.5797585459 0 0 0 0 
	-log_K	12.69 

1Ca+2 + 1Edta-4 = Ca(Edta)-2
	-log_K	12.69 

2H+ + Cit-3 + Ca+2 = Ca(H2Cit)+
	-analytical_expression	12.67 0 0 0 0 0 0 
	-log_K	12.67 

1Ca+2 + 1H2Cit- = Ca(H2Cit)+
	-log_K	1.53 

H3Isa- + Ca+2 = Ca(H2Isa) + H+
	-analytical_expression	-10.4 0 0 0 0 0 0 
	-log_K	-10.4 

1Ca+2 + 1H3Isa- + -1H+ = Ca(H2Isa)(aq)
	-log_K	-10.4 

H3Isa- + Ca+2 = Ca(H3Isa)+
	-analytical_expression	1.7 0 0 0 0 0 0 
	-log_K	1.7 

1Ca+2 + 1H3Isa- = Ca(H3Isa)+
	-log_K	1.7 

H+ + Cit-3 + Ca+2 = Ca(HCit)
	-analytical_expression	9.28 0 0 0 0 0 0 
	-log_K	9.28 

1Ca+2 + 1HCit-2 = Ca(HCit)(aq)
	-log_K	2.92 

H+ + Edta-4 + Ca+2 = Ca(HEdta)-
	-analytical_expression	16.23 0 0 0 0 0 0 
	-log_K	16.23 

1Ca(Edta)-2 + 1H+ = Ca(HEdta)-
	-log_K	3.54 

Oxa-2 + Ca+2 = Ca(Oxa)
	-analytical_expression	3.19 0 0 0 0 0 0 
	-log_K	3.19 

1Ca+2 + 1Oxa-2 = Ca(Oxa)(aq)
	-log_K	3.19 

2Oxa-2 + Ca+2 = Ca(Oxa)2-2
	-analytical_expression	4.02 0 0 0 0 0 0 
	-log_K	4.02 

1Ca+2 + 2Oxa-2 = Ca(Oxa)2-2
	-log_K	4.02 

4H2O + 2Ca+2 + Am+3 = Ca2Am(OH)4+3 + 4H+
	-analytical_expression	-37.2 0 0 0 0 0 0 
	-log_K	-37.2 

2Ca+2 + 1Am+3 + 4H2O(l) + -4H+ = Ca2Am(OH)4+3
	-log_K	-37.2 

4H2O + Cm+3 + 2Ca+2 = Ca2Cm(OH)4+3 + 4H+
	-analytical_expression	-37.2 0 0 0 0 0 0 
	-log_K	-37.2 

2Ca+2 + 1Cm+3 + 4H2O(l) + -4H+ = Ca2Cm(OH)4+3
	-log_K	-37.2 

UO2+2 + 3HCO3- + 2Ca+2 = Ca2UO2(CO3)3 + 3H+
	-analytical_expression	-0.5894147046688 0 119.97994168378 0 0 0 0 
	-log_K	-0.187 

2Ca+2 + 1UO2+2 + 3CO3-2 = Ca2UO2(CO3)3(aq)
	-log_K	30.8 

Zr+4 + 6H2O + 2Ca+2 = Ca2Zr(OH)6+2 + 6H+
	-analytical_expression	-22.6 0 0 0 0 0 0 
	-log_K	-22.6 

2Ca+2 + 1Zr+4 + 6H2O(l) + -6H+ = Ca2Zr(OH)6+2
	-log_K	-22.6 

6H2O + 3Ca+2 + Am+3 = Ca3Am(OH)6+3 + 6H+
	-analytical_expression	-60.7 0 0 0 0 0 0 
	-log_K	-60.7 

3Ca+2 + 1Am+3 + 6H2O(l) + -6H+ = Ca3Am(OH)6+3
	-log_K	-60.7 

6H2O + Cm+3 + 3Ca+2 = Ca3Cm(OH)6+3 + 6H+
	-analytical_expression	-60.7 0 0 0 0 0 0 
	-log_K	-60.7 

3Ca+2 + 1Cm+3 + 6H2O(l) + -6H+ = Ca3Cm(OH)6+3
	-log_K	-60.7 

NpO2+ + 5H2O + 3Ca+2 = Ca3NpO2(OH)5+2 + 5H+
	-analytical_expression	-54.8 0 0 0 0 0 0 
	-log_K	-54.8 

1NpO2+ + 3Ca+2 + 5H2O(l) + -5H+ = Ca3NpO2(OH)5+2
	-log_K	-54.8 

Zr+4 + 6H2O + 3Ca+2 = Ca3Zr(OH)6+4 + 6H+
	-analytical_expression	-23.2 0 0 0 0 0 0 
	-log_K	-23.2 

3Ca+2 + 1Zr+4 + 6H2O(l) + -6H+ = Ca3Zr(OH)6+4
	-log_K	-23.2 

Np+4 + 8H2O + 4Ca+2 = Ca4Np(OH)8+4 + 8H+
	-analytical_expression	-56.1 0 0 0 0 0 0 
	-log_K	-56.1 

4Ca+2 + 1Np+4 + 8H2O(l) + -8H+ = Ca4Np(OH)8+4
	-log_K	-56.1 

Pu+4 + 8H2O + 4Ca+2 = Ca4Pu(OH)8+4 + 8H+
	-analytical_expression	-56.2 0 0 0 0 0 0 
	-log_K	-56.2 

4Ca+2 + 1Pu+4 + 8H2O(l) + -8H+ = Ca4Pu(OH)8+4
	-log_K	-56.2 

Th+4 + 8H2O + 4Ca+2 = Ca4Th(OH)8+4 + 8H+
	-analytical_expression	-62.4 0 0 0 0 0 0 
	-log_K	-62.4 

4Ca+2 + 1Th+4 + 8H2O(l) + -8H+ = Ca4Th(OH)8+4
	-log_K	-62.4 

3H2O + Ca+2 + Am+3 = CaAm(OH)3+2 + 3H+
	-analytical_expression	-26.3 0 0 0 0 0 0 
	-log_K	-26.3 

1Ca+2 + 1Am+3 + 3H2O(l) + -3H+ = CaAm(OH)3+2
	-log_K	-26.3 

3H2O + Cm+3 + Ca+2 = CaCm(OH)3+2 + 3H+
	-analytical_expression	-26.3 0 0 0 0 0 0 
	-log_K	-26.3 

1Ca+2 + 1Cm+3 + 3H2O(l) + -3H+ = CaCm(OH)3+2
	-log_K	-26.3 

HCO3- + Ca+2 = CaCO3 + H+
	-analytical_expression	-56.798368546204 0 932.65726284193 18.8209527680639 0 0 0 
	-log_K	-7.099 

1Ca+2 + 1CO3-2 = CaCO3(aq)
	-log_K	3.23 

F- + Ca+2 = CaF+
	-analytical_expression	3.5724501914913 0 -668.58652744987 0 0 0 0 
	-log_K	1.33 

1Ca+2 + 1F- = CaF+
	-log_K	1.33 

HPO4-2 + H+ + Ca+2 = CaH2PO4+
	-analytical_expression	8.096885121655 0 31.339993474213 0 0 0 0 
	-log_K	8.202 

1Ca+2 + 1H2PO4- = CaH2PO4+
	-log_K	0.99 

HCO3- + Ca+2 = CaHCO3+
	-analytical_expression	2.5941653481618 0 -454.42990537609 0 0 0 0 
	-log_K	1.07 

1Ca+2 + 1HCO3- = CaHCO3+
	-log_K	1.07 

HPO4-2 + Ca+2 = CaHPO4
	-analytical_expression	4.8750076490322 0 -684.25652418698 0 0 0 0 
	-log_K	2.58 

1Ca+2 + 1HPO4-2 = CaHPO4(aq)
	-log_K	2.58 

MoO4-2 + Ca+2 = CaMoO4
	-analytical_expression	3.7263399538808 0 -365.63325719915 0 0 0 0 
	-log_K	2.5 

1Ca+2 + 1MoO4-2 = CaMoO4(aq)
	-log_K	2.5 

NpO2+ + 2H2O + Ca+2 = CaNpO2(OH)2+ + 2H+
	-analytical_expression	-20.6 0 0 0 0 0 0 
	-log_K	-20.6 

1NpO2+ + 1Ca+2 + 2H2O(l) + -2H+ = CaNpO2(OH)2+
	-log_K	-20.6 

H2O + Ca+2 = CaOH+ + H+
	-analytical_expression	153.18031491005 0 -9773.5556028961 -53.7373819983188 0 0 0 
	-log_K	-12.57 

1Ca+2 + 1H2O(l) + -1H+ = CaOH+
	-log_K	-12.57 

HPO4-2 + Ca+2 = CaPO4- + H+
	-analytical_expression	-3.5073966701371 0 -710.37318541549 0 0 0 0 
	-log_K	-5.89 

1Ca+2 + 1PO4-3 = CaPO4-
	-log_K	6.46 

HSeO4- + Ca+2 = CaSeO4 + H+
	-analytical_expression	0.25 0 0 0 0 0 0 
	-log_K	0.25 

1Ca+2 + 1SeO4-2 = CaSeO4(aq)
	-log_K	2 

Si(OH)4 + Ca+2 = CaSiO(OH)3+ + H+
	-analytical_expression	-8.64 0 0 0 0 0 0 
	-log_K	-8.64 

1Ca+2 + 1SiO(OH)3- = CaSiO(OH)3+
	-log_K	1.17 

Si(OH)4 + Ca+2 = CaSiO2(OH)2 + 2H+
	-analytical_expression	-18.64 0 0 0 0 0 0 
	-log_K	-18.64 

1Ca+2 + 1SiO2(OH)2-2 = CaSiO2(OH)2(aq)
	-log_K	4.5 

SO4-2 + Ca+2 = CaSO4
	-analytical_expression	3.5188208290249 0 -360.40992495345 0 0 0 0 
	-log_K	2.31 

1Ca+2 + 1SO4-2 = CaSO4(aq)
	-log_K	2.31 

UO2+2 + 3HCO3- + Ca+2 = CaUO2(CO3)3-2 + 3H+
	-analytical_expression	-4.3894146644451 0 119.97994168378 0 0 0 0 
	-log_K	-3.987 

1Ca+2 + 1UO2+2 + 3CO3-2 = CaUO2(CO3)3-2
	-log_K	27 

Zr+4 + 6H2O + Ca+2 = CaZr(OH)6 + 6H+
	-analytical_expression	-24.6 0 0 0 0 0 0 
	-log_K	-24.6 

1Ca+2 + 1Zr+4 + 6H2O(l) + -6H+ = CaZr(OH)6(aq)
	-log_K	-24.6 

2HCO3- + Cd+2 = Cd(CO3)2-2 + 2H+
	-analytical_expression	-14.458 0 0 0 0 0 0 
	-log_K	-14.458 

1Cd+2 + 2CO3-2 = Cd(CO3)2-2
	-log_K	6.2 

2HS- + Cd+2 = Cd(HS)2
	-analytical_expression	14.43 0 0 0 0 0 0 
	-log_K	14.43 

1Cd+2 + 2HS- = Cd(HS)2(aq)
	-log_K	14.43 

3HS- + Cd+2 = Cd(HS)3-
	-analytical_expression	16.3 0 0 0 0 0 0 
	-log_K	16.3 

1Cd+2 + 3HS- = Cd(HS)3-
	-log_K	16.3 

4HS- + Cd+2 = Cd(HS)4-2
	-analytical_expression	18.43 0 0 0 0 0 0 
	-log_K	18.43 

1Cd+2 + 4HS- = Cd(HS)4-2
	-log_K	18.43 

2H2O + Cd+2 = Cd(OH)2 + 2H+
	-analytical_expression	-20.19 0 0 0 0 0 0 
	-log_K	-20.19 

1Cd+2 + 2H2O(l) + -2H+ = Cd(OH)2(aq)
	-log_K	-20.19 

3H2O + Cd+2 = Cd(OH)3- + 3H+
	-analytical_expression	-33.5 0 0 0 0 0 0 
	-log_K	-33.5 

1Cd+2 + 3H2O(l) + -3H+ = Cd(OH)3-
	-log_K	-33.5 

4H2O + Cd+2 = Cd(OH)4-2 + 4H+
	-analytical_expression	-47.28 0 0 0 0 0 0 
	-log_K	-47.28 

1Cd+2 + 4H2O(l) + -4H+ = Cd(OH)4-2
	-log_K	-47.28 

2SO4-2 + Cd+2 = Cd(SO4)2-2
	-analytical_expression	4.318591084659 0 -297.72993800502 0 0 0 0 
	-log_K	3.32 

1Cd+2 + 2SO4-2 = Cd(SO4)2-2
	-log_K	3.32 

H2O + 2Cd+2 = Cd2OH+3 + H+
	-analytical_expression	-0.75127114563282 0 -2381.8395040402 0 0 0 0 
	-log_K	-8.74 

2Cd+2 + 1H2O(l) + -1H+ = Cd2OH+3
	-log_K	-8.74 

Cl- + Cd+2 = CdCl+
	-analytical_expression	2.5581316683316 0 -172.36996410817 0 0 0 0 
	-log_K	1.98 

1Cd+2 + 1Cl- = CdCl+
	-log_K	1.98 

2Cl- + Cd+2 = CdCl2
	-analytical_expression	4.0240122262979 0 -412.64324741047 0 0 0 0 
	-log_K	2.64 

1Cd+2 + 2Cl- = CdCl2(aq)
	-log_K	2.64 

3Cl- + Cd+2 = CdCl3-
	-analytical_expression	2.3 0 0 0 0 0 0 
	-log_K	2.3 

1Cd+2 + 3Cl- = CdCl3-
	-log_K	2.3 

4Cl- + Cd+2 = CdCl4-2
	-analytical_expression	1.7 0 0 0 0 0 0 
	-log_K	1.7 

1Cd+2 + 4Cl- = CdCl4-2
	-log_K	1.7 

HCO3- + Cd+2 = CdCO3 + H+
	-analytical_expression	-5.929 0 0 0 0 0 0 
	-log_K	-5.929 

1Cd+2 + 1CO3-2 = CdCO3(aq)
	-log_K	4.4 

HPO4-2 + H+ + Cd+2 = CdH2PO4+
	-analytical_expression	9.112 0 0 0 0 0 0 
	-log_K	9.112 

1Cd+2 + 1H2PO4- = CdH2PO4+
	-log_K	1.9 

HCO3- + Cd+2 = CdHCO3+
	-analytical_expression	1.7 0 0 0 0 0 0 
	-log_K	1.7 

1Cd+2 + 1HCO3- = CdHCO3+
	-log_K	1.7 

HPO4-2 + Cd+2 = CdHPO4
	-analytical_expression	3.72 0 0 0 0 0 0 
	-log_K	3.72 

1Cd+2 + 1HPO4-2 = CdHPO4(aq)
	-log_K	3.72 

HS- + Cd+2 = CdHS+
	-analytical_expression	7.4 0 0 0 0 0 0 
	-log_K	7.4 

1Cd+2 + 1HS- = CdHS+
	-log_K	7.4 

H2O + Cd+2 = CdOH+ + H+
	-analytical_expression	-0.1995100850569 0 -2862.3860706448 0 0 0 0 
	-log_K	-9.8 

1Cd+2 + 1H2O(l) + -1H+ = CdOH+
	-log_K	-9.8 

2HS- + Cd+2 = CdS(HS)- + H+
	-analytical_expression	6.8 0 0 0 0 0 0 
	-log_K	6.8 

1Cd+2 + 2HS- + -1H+ = CdS(HS)-
	-log_K	6.8 

SO4-2 + Cd+2 = CdSO4
	-analytical_expression	3.8140888016093 0 -433.53657639328 0 0 0 0 
	-log_K	2.36 

1Cd+2 + 1SO4-2 = CdSO4(aq)
	-log_K	2.36 

F- + Cf+3 = CfF+2
	-analytical_expression	6.0672587762084 0 -616.35320499285 0 0 0 0 
	-log_K	4 

1Cf+3 + +1F- = CfF+2
	-log_K	4 

S + HCN + Cf+3 = CfSCN+2 + H+
	-analytical_expression	11.944543 0 0 0 0 0 0 
	-log_K	11.944543 

1Cf+3 + +1SCN- = CfSCN+2
	-log_K	1.5 

SO4-2 + Cf+3 = CfSO4+
	-analytical_expression	6.7709647436455 0 -945.42313647209 0 0 0 0 
	-log_K	3.6 

1Cf+3 + +1SO4-2 = CfSO4+
	-log_K	3.6 

HCO3- + 9H+ + 8- = CH4 + 3H2O
	-analytical_expression	-167.08105722904 0 20047.490616069 51.6038828504494 0 0 0 