SOLUTION_MASTER_SPECIES 


#        ATOMIC WEIGHTS 
#        Naturally occuring elements: IUPAC 1993 Table 1 rounded to 0.001
#        Radioelements: Mass number of longest-lived isotope
#
#
#
#  elemen     species        alk   gfw_formula element_gfw atomic
#                                                          number
#
